Circuit: * C:\users\mariano\Escritorio\Enlace hacia Docencia\TC2\scripts\analog filters\python\jupytest\Draft1.asc

Direct Newton iteration for .op point succeeded.

Date: Wed Apr 13 16:13:25 2022
Total elapsed time: 0.030 seconds.

tnom = 27
temp = 27
method = trap
totiter = 3
traniter = 0
tranpoints = 0
accept = 0
rejected = 0
matrix size = 5
fillins = 0
solver = Normal
Matrix Compiler1:      23 opcodes
Matrix Compiler2: 457 bytes object code size
